Circuit: * C:\Users\steve\Documents\School\2023 Fall\Neural\LtSpice\Three Models.asc

Laplace(x2:e1): Window=4.3735619s Nfft=131072
.OP point found by inspection.

Date: Sat Oct 14 10:32:16 2023
Total elapsed time: 0.521 seconds.

tnom = 27
temp = 27
method = modified trap
totiter = 5042
traniter = 5042
tranpoints = 2522
accept = 2522
rejected = 0
matrix size = 10
fillins = 2
solver = Normal
Matrix Compiler1: 610 bytes object code size  0.2/0.1/[0.1]
Matrix Compiler2: 744 bytes object code size  0.1/0.1/[0.1]

